Version 4
SHEET 1 880 680
WIRE 160 -64 0 -64
WIRE 400 -64 240 -64
WIRE 544 0 432 0
WIRE 608 0 544 0
WIRE 672 0 608 0
WIRE 816 0 672 0
WIRE 608 16 608 0
WIRE 0 32 0 -64
WIRE 48 32 0 32
WIRE 400 32 400 -64
WIRE 400 32 368 32
WIRE -224 112 -416 112
WIRE 48 112 -224 112
WIRE 432 112 432 0
WIRE 432 112 368 112
WIRE 672 112 672 0
WIRE -224 192 -224 112
WIRE 48 192 -224 192
WIRE 608 192 608 96
WIRE 608 192 368 192
WIRE 816 208 816 0
WIRE -416 256 -416 112
WIRE -224 256 -224 192
WIRE 400 272 368 272
WIRE 496 272 480 272
WIRE 608 272 608 192
WIRE 608 272 560 272
WIRE 608 288 608 272
WIRE 48 352 -32 352
WIRE 400 352 368 352
WIRE -32 384 -32 352
WIRE -416 480 -416 336
WIRE -224 480 -224 320
WIRE -224 480 -416 480
WIRE -32 480 -32 464
WIRE -32 480 -224 480
WIRE 160 480 -32 480
WIRE 400 480 400 352
WIRE 400 480 160 480
WIRE 608 480 608 368
WIRE 608 480 400 480
WIRE 672 480 672 176
WIRE 672 480 608 480
WIRE 816 480 816 288
WIRE 816 480 672 480
WIRE 160 512 160 480
FLAG 544 0 Vout
FLAG 160 512 0
SYMBOL PowerProducts\\LTC3440 208 192 R0
SYMATTR InstName U1
SYMBOL voltage -416 240 R0
WINDOW 123 0 0 Left 0
WINDOW 39 0 0 Left 0
SYMATTR InstName V1
SYMATTR Value 3
SYMBOL ind 144 -48 R270
WINDOW 0 32 56 VTop 2
WINDOW 3 5 56 VBottom 2
SYMATTR InstName L2
SYMATTR Value 4.7µ
SYMBOL cap -240 256 R0
SYMATTR InstName C1
SYMATTR Value 4.7µ
SYMBOL cap 656 112 R0
SYMATTR InstName C2
SYMATTR Value 4.7µ
SYMBOL res 592 0 R0
SYMATTR InstName R1
SYMATTR Value 292k
SYMBOL res 496 256 R90
WINDOW 0 0 56 VBottom 2
WINDOW 3 32 56 VTop 2
SYMATTR InstName R3
SYMATTR Value 15k
SYMBOL cap 560 256 R90
WINDOW 0 0 32 VBottom 2
WINDOW 3 32 32 VTop 2
SYMATTR InstName C3
SYMATTR Value 1.5n
SYMBOL res 592 272 R0
SYMATTR InstName R2
SYMATTR Value 200k
SYMBOL res -48 368 R0
SYMATTR InstName R4
SYMATTR Value 60.4k
SYMBOL res 800 192 R0
SYMATTR InstName R5
SYMATTR Value 83
TEXT -448 536 Left 2 !.tran 1.2m
